<additional>
  <laneAreaDetector file="ild.out" freq="1" id="top0A3_2" lane="top0A3_2" pos="-50" endPos="-1"/>
  <laneAreaDetector file="ild.out" freq="1" id="B2A2_1" lane="B2A2_1" pos="-50" endPos="-1"/>
  <laneAreaDetector file="ild.out" freq="1" id="C2C3_1" lane="C2C3_1" pos="-50" endPos="-1"/>
  <laneAreaDetector file="ild.out" freq="1" id="C1C2_0" lane="C1C2_0" pos="-50" endPos="-1"/>
  <laneAreaDetector file="ild.out" freq="1" id="top1B3_1" lane="top1B3_1" pos="-50" endPos="-1"/>
  <laneAreaDetector file="ild.out" freq="1" id="D2D1_0" lane="D2D1_0" pos="-50" endPos="-1"/>
  <laneAreaDetector file="ild.out" freq="1" id="D2D1_2" lane="D2D1_2" pos="-50" endPos="-1"/>
  <laneAreaDetector file="ild.out" freq="1" id="A3B3_2" lane="A3B3_2" pos="-50" endPos="-1"/>
  <laneAreaDetector file="ild.out" freq="1" id="B2B1_1" lane="B2B1_1" pos="-50" endPos="-1"/>
  <laneAreaDetector file="ild.out" freq="1" id="A2A3_0" lane="A2A3_0" pos="-50" endPos="-1"/>
  <laneAreaDetector file="ild.out" freq="1" id="D2right2_2" lane="D2right2_2" pos="-50" endPos="-1"/>
  <laneAreaDetector file="ild.out" freq="1" id="C1C2_1" lane="C1C2_1" pos="-50" endPos="-1"/>
  <laneAreaDetector file="ild.out" freq="1" id="B2C2_2" lane="B2C2_2" pos="-50" endPos="-1"/>
  <laneAreaDetector file="ild.out" freq="1" id="D2D3_2" lane="D2D3_2" pos="-50" endPos="-1"/>
  <laneAreaDetector file="ild.out" freq="1" id="D1C1_2" lane="D1C1_2" pos="-50" endPos="-1"/>
  <laneAreaDetector file="ild.out" freq="1" id="C1B1_2" lane="C1B1_2" pos="-50" endPos="-1"/>
  <laneAreaDetector file="ild.out" freq="1" id="A0bottom0_0" lane="A0bottom0_0" pos="-50" endPos="-1"/>
  <laneAreaDetector file="ild.out" freq="1" id="B0C0_0" lane="B0C0_0" pos="-50" endPos="-1"/>
  <laneAreaDetector file="ild.out" freq="1" id="A0bottom0_1" lane="A0bottom0_1" pos="-50" endPos="-1"/>
  <laneAreaDetector file="ild.out" freq="1" id="A2A1_2" lane="A2A1_2" pos="-50" endPos="-1"/>
  <laneAreaDetector file="ild.out" freq="1" id="left1A1_2" lane="left1A1_2" pos="-50" endPos="-1"/>
  <laneAreaDetector file="ild.out" freq="1" id="A2left2_0" lane="A2left2_0" pos="-50" endPos="-1"/>
  <laneAreaDetector file="ild.out" freq="1" id="C0D0_0" lane="C0D0_0" pos="-50" endPos="-1"/>
  <laneAreaDetector file="ild.out" freq="1" id="top2C3_0" lane="top2C3_0" pos="-50" endPos="-1"/>
  <laneAreaDetector file="ild.out" freq="1" id="B1B2_1" lane="B1B2_1" pos="-50" endPos="-1"/>
  <laneAreaDetector file="ild.out" freq="1" id="C3D3_2" lane="C3D3_2" pos="-50" endPos="-1"/>
  <laneAreaDetector file="ild.out" freq="1" id="B0bottom1_0" lane="B0bottom1_0" pos="-50" endPos="-1"/>
  <laneAreaDetector file="ild.out" freq="1" id="A3B3_1" lane="A3B3_1" pos="-50" endPos="-1"/>
  <laneAreaDetector file="ild.out" freq="1" id="D2C2_1" lane="D2C2_1" pos="-50" endPos="-1"/>
  <laneAreaDetector file="ild.out" freq="1" id="D3C3_2" lane="D3C3_2" pos="-50" endPos="-1"/>
  <laneAreaDetector file="ild.out" freq="1" id="A1B1_2" lane="A1B1_2" pos="-50" endPos="-1"/>
  <laneAreaDetector file="ild.out" freq="1" id="D3right3_0" lane="D3right3_0" pos="-50" endPos="-1"/>
  <laneAreaDetector file="ild.out" freq="1" id="C3top2_0" lane="C3top2_0" pos="-50" endPos="-1"/>
  <laneAreaDetector file="ild.out" freq="1" id="C0bottom2_1" lane="C0bottom2_1" pos="-50" endPos="-1"/>
  <laneAreaDetector file="ild.out" freq="1" id="B3top1_2" lane="B3top1_2" pos="-50" endPos="-1"/>
  <laneAreaDetector file="ild.out" freq="1" id="D1D0_0" lane="D1D0_0" pos="-50" endPos="-1"/>
  <laneAreaDetector file="ild.out" freq="1" id="A1A0_2" lane="A1A0_2" pos="-50" endPos="-1"/>
  <laneAreaDetector file="ild.out" freq="1" id="C3C2_2" lane="C3C2_2" pos="-50" endPos="-1"/>
  <laneAreaDetector file="ild.out" freq="1" id="B3A3_0" lane="B3A3_0" pos="-50" endPos="-1"/>
  <laneAreaDetector file="ild.out" freq="1" id="bottom0A0_0" lane="bottom0A0_0" pos="-50" endPos="-1"/>
  <laneAreaDetector file="ild.out" freq="1" id="D2right2_0" lane="D2right2_0" pos="-50" endPos="-1"/>
  <laneAreaDetector file="ild.out" freq="1" id="C0C1_0" lane="C0C1_0" pos="-50" endPos="-1"/>
  <laneAreaDetector file="ild.out" freq="1" id="B1B0_1" lane="B1B0_1" pos="-50" endPos="-1"/>
  <laneAreaDetector file="ild.out" freq="1" id="C3D3_1" lane="C3D3_1" pos="-50" endPos="-1"/>
  <laneAreaDetector file="ild.out" freq="1" id="C0B0_1" lane="C0B0_1" pos="-50" endPos="-1"/>
  <laneAreaDetector file="ild.out" freq="1" id="C1B1_1" lane="C1B1_1" pos="-50" endPos="-1"/>
  <laneAreaDetector file="ild.out" freq="1" id="A1A0_0" lane="A1A0_0" pos="-50" endPos="-1"/>
  <laneAreaDetector file="ild.out" freq="1" id="D3right3_2" lane="D3right3_2" pos="-50" endPos="-1"/>
  <laneAreaDetector file="ild.out" freq="1" id="B1B2_2" lane="B1B2_2" pos="-50" endPos="-1"/>
  <laneAreaDetector file="ild.out" freq="1" id="top0A3_1" lane="top0A3_1" pos="-50" endPos="-1"/>
  <laneAreaDetector file="ild.out" freq="1" id="top3D3_2" lane="top3D3_2" pos="-50" endPos="-1"/>
  <laneAreaDetector file="ild.out" freq="1" id="left2A2_1" lane="left2A2_1" pos="-50" endPos="-1"/>
  <laneAreaDetector file="ild.out" freq="1" id="B2B1_0" lane="B2B1_0" pos="-50" endPos="-1"/>
  <laneAreaDetector file="ild.out" freq="1" id="top0A3_0" lane="top0A3_0" pos="-50" endPos="-1"/>
  <laneAreaDetector file="ild.out" freq="1" id="C2D2_0" lane="C2D2_0" pos="-50" endPos="-1"/>
  <laneAreaDetector file="ild.out" freq="1" id="A0B0_1" lane="A0B0_1" pos="-50" endPos="-1"/>
  <laneAreaDetector file="ild.out" freq="1" id="B3B2_2" lane="B3B2_2" pos="-50" endPos="-1"/>
  <laneAreaDetector file="ild.out" freq="1" id="A0B0_2" lane="A0B0_2" pos="-50" endPos="-1"/>
  <laneAreaDetector file="ild.out" freq="1" id="B3B2_0" lane="B3B2_0" pos="-50" endPos="-1"/>
  <laneAreaDetector file="ild.out" freq="1" id="B3B2_1" lane="B3B2_1" pos="-50" endPos="-1"/>
  <laneAreaDetector file="ild.out" freq="1" id="A1A2_0" lane="A1A2_0" pos="-50" endPos="-1"/>
  <laneAreaDetector file="ild.out" freq="1" id="A0A1_2" lane="A0A1_2" pos="-50" endPos="-1"/>
  <laneAreaDetector file="ild.out" freq="1" id="bottom2C0_2" lane="bottom2C0_2" pos="-50" endPos="-1"/>
  <laneAreaDetector file="ild.out" freq="1" id="C0C1_1" lane="C0C1_1" pos="-50" endPos="-1"/>
  <laneAreaDetector file="ild.out" freq="1" id="C2C3_0" lane="C2C3_0" pos="-50" endPos="-1"/>
  <laneAreaDetector file="ild.out" freq="1" id="B1A1_0" lane="B1A1_0" pos="-50" endPos="-1"/>
  <laneAreaDetector file="ild.out" freq="1" id="B0A0_2" lane="B0A0_2" pos="-50" endPos="-1"/>
  <laneAreaDetector file="ild.out" freq="1" id="A0A1_0" lane="A0A1_0" pos="-50" endPos="-1"/>
  <laneAreaDetector file="ild.out" freq="1" id="B2C2_1" lane="B2C2_1" pos="-50" endPos="-1"/>
  <laneAreaDetector file="ild.out" freq="1" id="right1D1_2" lane="right1D1_2" pos="-50" endPos="-1"/>
  <laneAreaDetector file="ild.out" freq="1" id="D3top3_1" lane="D3top3_1" pos="-50" endPos="-1"/>
  <laneAreaDetector file="ild.out" freq="1" id="A1A2_2" lane="A1A2_2" pos="-50" endPos="-1"/>
  <laneAreaDetector file="ild.out" freq="1" id="C2B2_1" lane="C2B2_1" pos="-50" endPos="-1"/>
  <laneAreaDetector file="ild.out" freq="1" id="A3top0_0" lane="A3top0_0" pos="-50" endPos="-1"/>
  <laneAreaDetector file="ild.out" freq="1" id="top2C3_2" lane="top2C3_2" pos="-50" endPos="-1"/>
  <laneAreaDetector file="ild.out" freq="1" id="A1left1_2" lane="A1left1_2" pos="-50" endPos="-1"/>
  <laneAreaDetector file="ild.out" freq="1" id="C1D1_2" lane="C1D1_2" pos="-50" endPos="-1"/>
  <laneAreaDetector file="ild.out" freq="1" id="A0left0_2" lane="A0left0_2" pos="-50" endPos="-1"/>
  <laneAreaDetector file="ild.out" freq="1" id="D0right0_2" lane="D0right0_2" pos="-50" endPos="-1"/>
  <laneAreaDetector file="ild.out" freq="1" id="C3top2_2" lane="C3top2_2" pos="-50" endPos="-1"/>
  <laneAreaDetector file="ild.out" freq="1" id="A2A1_0" lane="A2A1_0" pos="-50" endPos="-1"/>
  <laneAreaDetector file="ild.out" freq="1" id="A2A3_2" lane="A2A3_2" pos="-50" endPos="-1"/>
  <laneAreaDetector file="ild.out" freq="1" id="bottom0A0_1" lane="bottom0A0_1" pos="-50" endPos="-1"/>
  <laneAreaDetector file="ild.out" freq="1" id="bottom2C0_1" lane="bottom2C0_1" pos="-50" endPos="-1"/>
  <laneAreaDetector file="ild.out" freq="1" id="D1D0_1" lane="D1D0_1" pos="-50" endPos="-1"/>
  <laneAreaDetector file="ild.out" freq="1" id="D2C2_2" lane="D2C2_2" pos="-50" endPos="-1"/>
  <laneAreaDetector file="ild.out" freq="1" id="D3top3_0" lane="D3top3_0" pos="-50" endPos="-1"/>
  <laneAreaDetector file="ild.out" freq="1" id="A3left3_2" lane="A3left3_2" pos="-50" endPos="-1"/>
  <laneAreaDetector file="ild.out" freq="1" id="D1D2_2" lane="D1D2_2" pos="-50" endPos="-1"/>
  <laneAreaDetector file="ild.out" freq="1" id="B0C0_1" lane="B0C0_1" pos="-50" endPos="-1"/>
  <laneAreaDetector file="ild.out" freq="1" id="bottom2C0_0" lane="bottom2C0_0" pos="-50" endPos="-1"/>
  <laneAreaDetector file="ild.out" freq="1" id="A1left1_0" lane="A1left1_0" pos="-50" endPos="-1"/>
  <laneAreaDetector file="ild.out" freq="1" id="C2B2_2" lane="C2B2_2" pos="-50" endPos="-1"/>
  <laneAreaDetector file="ild.out" freq="1" id="right0D0_2" lane="right0D0_2" pos="-50" endPos="-1"/>
  <laneAreaDetector file="ild.out" freq="1" id="C0D0_1" lane="C0D0_1" pos="-50" endPos="-1"/>
  <laneAreaDetector file="ild.out" freq="1" id="top2C3_1" lane="top2C3_1" pos="-50" endPos="-1"/>
  <laneAreaDetector file="ild.out" freq="1" id="left2A2_2" lane="left2A2_2" pos="-50" endPos="-1"/>
  <laneAreaDetector file="ild.out" freq="1" id="D2C2_0" lane="D2C2_0" pos="-50" endPos="-1"/>
  <laneAreaDetector file="ild.out" freq="1" id="B0A0_1" lane="B0A0_1" pos="-50" endPos="-1"/>
  <laneAreaDetector file="ild.out" freq="1" id="A1left1_1" lane="A1left1_1" pos="-50" endPos="-1"/>
  <laneAreaDetector file="ild.out" freq="1" id="B1C1_1" lane="B1C1_1" pos="-50" endPos="-1"/>
  <laneAreaDetector file="ild.out" freq="1" id="D0D1_2" lane="D0D1_2" pos="-50" endPos="-1"/>
  <laneAreaDetector file="ild.out" freq="1" id="bottom0A0_2" lane="bottom0A0_2" pos="-50" endPos="-1"/>
  <laneAreaDetector file="ild.out" freq="1" id="C2C1_0" lane="C2C1_0" pos="-50" endPos="-1"/>
  <laneAreaDetector file="ild.out" freq="1" id="C2C1_1" lane="C2C1_1" pos="-50" endPos="-1"/>
  <laneAreaDetector file="ild.out" freq="1" id="C3B3_1" lane="C3B3_1" pos="-50" endPos="-1"/>
  <laneAreaDetector file="ild.out" freq="1" id="top3D3_1" lane="top3D3_1" pos="-50" endPos="-1"/>
  <laneAreaDetector file="ild.out" freq="1" id="C3C2_0" lane="C3C2_0" pos="-50" endPos="-1"/>
  <laneAreaDetector file="ild.out" freq="1" id="B1B0_0" lane="B1B0_0" pos="-50" endPos="-1"/>
  <laneAreaDetector file="ild.out" freq="1" id="B3C3_1" lane="B3C3_1" pos="-50" endPos="-1"/>
  <laneAreaDetector file="ild.out" freq="1" id="B2B3_1" lane="B2B3_1" pos="-50" endPos="-1"/>
  <laneAreaDetector file="ild.out" freq="1" id="D2D1_1" lane="D2D1_1" pos="-50" endPos="-1"/>
  <laneAreaDetector file="ild.out" freq="1" id="D2D3_1" lane="D2D3_1" pos="-50" endPos="-1"/>
  <laneAreaDetector file="ild.out" freq="1" id="A2left2_1" lane="A2left2_1" pos="-50" endPos="-1"/>
  <laneAreaDetector file="ild.out" freq="1" id="B2B3_2" lane="B2B3_2" pos="-50" endPos="-1"/>
  <laneAreaDetector file="ild.out" freq="1" id="C1D1_0" lane="C1D1_0" pos="-50" endPos="-1"/>
  <laneAreaDetector file="ild.out" freq="1" id="D3C3_0" lane="D3C3_0" pos="-50" endPos="-1"/>
  <laneAreaDetector file="ild.out" freq="1" id="B0A0_0" lane="B0A0_0" pos="-50" endPos="-1"/>
  <laneAreaDetector file="ild.out" freq="1" id="B1C1_2" lane="B1C1_2" pos="-50" endPos="-1"/>
  <laneAreaDetector file="ild.out" freq="1" id="C1C0_0" lane="C1C0_0" pos="-50" endPos="-1"/>
  <laneAreaDetector file="ild.out" freq="1" id="left0A0_2" lane="left0A0_2" pos="-50" endPos="-1"/>
  <laneAreaDetector file="ild.out" freq="1" id="B0B1_1" lane="B0B1_1" pos="-50" endPos="-1"/>
  <laneAreaDetector file="ild.out" freq="1" id="B3C3_0" lane="B3C3_0" pos="-50" endPos="-1"/>
  <laneAreaDetector file="ild.out" freq="1" id="D0right0_0" lane="D0right0_0" pos="-50" endPos="-1"/>
  <laneAreaDetector file="ild.out" freq="1" id="A3top0_1" lane="A3top0_1" pos="-50" endPos="-1"/>
  <laneAreaDetector file="ild.out" freq="1" id="left0A0_0" lane="left0A0_0" pos="-50" endPos="-1"/>
  <laneAreaDetector file="ild.out" freq="1" id="C0D0_2" lane="C0D0_2" pos="-50" endPos="-1"/>
  <laneAreaDetector file="ild.out" freq="1" id="D1right1_0" lane="D1right1_0" pos="-50" endPos="-1"/>
  <laneAreaDetector file="ild.out" freq="1" id="right1D1_1" lane="right1D1_1" pos="-50" endPos="-1"/>
  <laneAreaDetector file="ild.out" freq="1" id="B3top1_0" lane="B3top1_0" pos="-50" endPos="-1"/>
  <laneAreaDetector file="ild.out" freq="1" id="C0bottom2_2" lane="C0bottom2_2" pos="-50" endPos="-1"/>
  <laneAreaDetector file="ild.out" freq="1" id="C2D2_1" lane="C2D2_1" pos="-50" endPos="-1"/>
  <laneAreaDetector file="ild.out" freq="1" id="A2B2_2" lane="A2B2_2" pos="-50" endPos="-1"/>
  <laneAreaDetector file="ild.out" freq="1" id="B2A2_2" lane="B2A2_2" pos="-50" endPos="-1"/>
  <laneAreaDetector file="ild.out" freq="1" id="D0C0_1" lane="D0C0_1" pos="-50" endPos="-1"/>
  <laneAreaDetector file="ild.out" freq="1" id="A1B1_0" lane="A1B1_0" pos="-50" endPos="-1"/>
  <laneAreaDetector file="ild.out" freq="1" id="right2D2_1" lane="right2D2_1" pos="-50" endPos="-1"/>
  <laneAreaDetector file="ild.out" freq="1" id="C0bottom2_0" lane="C0bottom2_0" pos="-50" endPos="-1"/>
  <laneAreaDetector file="ild.out" freq="1" id="C1B1_0" lane="C1B1_0" pos="-50" endPos="-1"/>
  <laneAreaDetector file="ild.out" freq="1" id="bottom3D0_2" lane="bottom3D0_2" pos="-50" endPos="-1"/>
  <laneAreaDetector file="ild.out" freq="1" id="C3B3_0" lane="C3B3_0" pos="-50" endPos="-1"/>
  <laneAreaDetector file="ild.out" freq="1" id="bottom1B0_0" lane="bottom1B0_0" pos="-50" endPos="-1"/>
  <laneAreaDetector file="ild.out" freq="1" id="B0B1_0" lane="B0B1_0" pos="-50" endPos="-1"/>
  <laneAreaDetector file="ild.out" freq="1" id="C3B3_2" lane="C3B3_2" pos="-50" endPos="-1"/>
  <laneAreaDetector file="ild.out" freq="1" id="D1right1_2" lane="D1right1_2" pos="-50" endPos="-1"/>
  <laneAreaDetector file="ild.out" freq="1" id="A2A1_1" lane="A2A1_1" pos="-50" endPos="-1"/>
  <laneAreaDetector file="ild.out" freq="1" id="B0bottom1_2" lane="B0bottom1_2" pos="-50" endPos="-1"/>
  <laneAreaDetector file="ild.out" freq="1" id="left3A3_1" lane="left3A3_1" pos="-50" endPos="-1"/>
  <laneAreaDetector file="ild.out" freq="1" id="right3D3_0" lane="right3D3_0" pos="-50" endPos="-1"/>
  <laneAreaDetector file="ild.out" freq="1" id="C0C1_2" lane="C0C1_2" pos="-50" endPos="-1"/>
  <laneAreaDetector file="ild.out" freq="1" id="right3D3_2" lane="right3D3_2" pos="-50" endPos="-1"/>
  <laneAreaDetector file="ild.out" freq="1" id="A3left3_1" lane="A3left3_1" pos="-50" endPos="-1"/>
  <laneAreaDetector file="ild.out" freq="1" id="B0bottom1_1" lane="B0bottom1_1" pos="-50" endPos="-1"/>
  <laneAreaDetector file="ild.out" freq="1" id="left1A1_0" lane="left1A1_0" pos="-50" endPos="-1"/>
  <laneAreaDetector file="ild.out" freq="1" id="D1C1_0" lane="D1C1_0" pos="-50" endPos="-1"/>
  <laneAreaDetector file="ild.out" freq="1" id="C0B0_2" lane="C0B0_2" pos="-50" endPos="-1"/>
  <laneAreaDetector file="ild.out" freq="1" id="C1D1_1" lane="C1D1_1" pos="-50" endPos="-1"/>
  <laneAreaDetector file="ild.out" freq="1" id="bottom1B0_1" lane="bottom1B0_1" pos="-50" endPos="-1"/>
  <laneAreaDetector file="ild.out" freq="1" id="left3A3_0" lane="left3A3_0" pos="-50" endPos="-1"/>
  <laneAreaDetector file="ild.out" freq="1" id="B3A3_1" lane="B3A3_1" pos="-50" endPos="-1"/>
  <laneAreaDetector file="ild.out" freq="1" id="B1B2_0" lane="B1B2_0" pos="-50" endPos="-1"/>
  <laneAreaDetector file="ild.out" freq="1" id="D1D2_0" lane="D1D2_0" pos="-50" endPos="-1"/>
  <laneAreaDetector file="ild.out" freq="1" id="D0right0_1" lane="D0right0_1" pos="-50" endPos="-1"/>
  <laneAreaDetector file="ild.out" freq="1" id="D0D1_1" lane="D0D1_1" pos="-50" endPos="-1"/>
  <laneAreaDetector file="ild.out" freq="1" id="bottom3D0_1" lane="bottom3D0_1" pos="-50" endPos="-1"/>
  <laneAreaDetector file="ild.out" freq="1" id="B1B0_2" lane="B1B0_2" pos="-50" endPos="-1"/>
  <laneAreaDetector file="ild.out" freq="1" id="right0D0_1" lane="right0D0_1" pos="-50" endPos="-1"/>
  <laneAreaDetector file="ild.out" freq="1" id="A3A2_2" lane="A3A2_2" pos="-50" endPos="-1"/>
  <laneAreaDetector file="ild.out" freq="1" id="top1B3_2" lane="top1B3_2" pos="-50" endPos="-1"/>
  <laneAreaDetector file="ild.out" freq="1" id="D1C1_1" lane="D1C1_1" pos="-50" endPos="-1"/>
  <laneAreaDetector file="ild.out" freq="1" id="right0D0_0" lane="right0D0_0" pos="-50" endPos="-1"/>
  <laneAreaDetector file="ild.out" freq="1" id="D3right3_1" lane="D3right3_1" pos="-50" endPos="-1"/>
  <laneAreaDetector file="ild.out" freq="1" id="C1C0_2" lane="C1C0_2" pos="-50" endPos="-1"/>
  <laneAreaDetector file="ild.out" freq="1" id="A3left3_0" lane="A3left3_0" pos="-50" endPos="-1"/>
  <laneAreaDetector file="ild.out" freq="1" id="B2A2_0" lane="B2A2_0" pos="-50" endPos="-1"/>
  <laneAreaDetector file="ild.out" freq="1" id="right2D2_0" lane="right2D2_0" pos="-50" endPos="-1"/>
  <laneAreaDetector file="ild.out" freq="1" id="C1C2_2" lane="C1C2_2" pos="-50" endPos="-1"/>
  <laneAreaDetector file="ild.out" freq="1" id="B2B3_0" lane="B2B3_0" pos="-50" endPos="-1"/>
  <laneAreaDetector file="ild.out" freq="1" id="bottom3D0_0" lane="bottom3D0_0" pos="-50" endPos="-1"/>
  <laneAreaDetector file="ild.out" freq="1" id="top3D3_0" lane="top3D3_0" pos="-50" endPos="-1"/>
  <laneAreaDetector file="ild.out" freq="1" id="C0B0_0" lane="C0B0_0" pos="-50" endPos="-1"/>
  <laneAreaDetector file="ild.out" freq="1" id="A1A2_1" lane="A1A2_1" pos="-50" endPos="-1"/>
  <laneAreaDetector file="ild.out" freq="1" id="B0C0_2" lane="B0C0_2" pos="-50" endPos="-1"/>
  <laneAreaDetector file="ild.out" freq="1" id="B0B1_2" lane="B0B1_2" pos="-50" endPos="-1"/>
  <laneAreaDetector file="ild.out" freq="1" id="D0bottom3_1" lane="D0bottom3_1" pos="-50" endPos="-1"/>
  <laneAreaDetector file="ild.out" freq="1" id="D2right2_1" lane="D2right2_1" pos="-50" endPos="-1"/>
  <laneAreaDetector file="ild.out" freq="1" id="A0A1_1" lane="A0A1_1" pos="-50" endPos="-1"/>
  <laneAreaDetector file="ild.out" freq="1" id="A1B1_1" lane="A1B1_1" pos="-50" endPos="-1"/>
  <laneAreaDetector file="ild.out" freq="1" id="A2B2_0" lane="A2B2_0" pos="-50" endPos="-1"/>
  <laneAreaDetector file="ild.out" freq="1" id="left3A3_2" lane="left3A3_2" pos="-50" endPos="-1"/>
  <laneAreaDetector file="ild.out" freq="1" id="C2C3_2" lane="C2C3_2" pos="-50" endPos="-1"/>
  <laneAreaDetector file="ild.out" freq="1" id="D3D2_1" lane="D3D2_1" pos="-50" endPos="-1"/>
  <laneAreaDetector file="ild.out" freq="1" id="right3D3_1" lane="right3D3_1" pos="-50" endPos="-1"/>
  <laneAreaDetector file="ild.out" freq="1" id="left2A2_0" lane="left2A2_0" pos="-50" endPos="-1"/>
  <laneAreaDetector file="ild.out" freq="1" id="C3D3_0" lane="C3D3_0" pos="-50" endPos="-1"/>
  <laneAreaDetector file="ild.out" freq="1" id="A0bottom0_2" lane="A0bottom0_2" pos="-50" endPos="-1"/>
  <laneAreaDetector file="ild.out" freq="1" id="B2B1_2" lane="B2B1_2" pos="-50" endPos="-1"/>
  <laneAreaDetector file="ild.out" freq="1" id="B1A1_1" lane="B1A1_1" pos="-50" endPos="-1"/>
  <laneAreaDetector file="ild.out" freq="1" id="A0left0_1" lane="A0left0_1" pos="-50" endPos="-1"/>
  <laneAreaDetector file="ild.out" freq="1" id="D0C0_0" lane="D0C0_0" pos="-50" endPos="-1"/>
  <laneAreaDetector file="ild.out" freq="1" id="left0A0_1" lane="left0A0_1" pos="-50" endPos="-1"/>
  <laneAreaDetector file="ild.out" freq="1" id="D1right1_1" lane="D1right1_1" pos="-50" endPos="-1"/>
  <laneAreaDetector file="ild.out" freq="1" id="D1D2_1" lane="D1D2_1" pos="-50" endPos="-1"/>
  <laneAreaDetector file="ild.out" freq="1" id="A1A0_1" lane="A1A0_1" pos="-50" endPos="-1"/>
  <laneAreaDetector file="ild.out" freq="1" id="A2left2_2" lane="A2left2_2" pos="-50" endPos="-1"/>
  <laneAreaDetector file="ild.out" freq="1" id="A3B3_0" lane="A3B3_0" pos="-50" endPos="-1"/>
  <laneAreaDetector file="ild.out" freq="1" id="D0D1_0" lane="D0D1_0" pos="-50" endPos="-1"/>
  <laneAreaDetector file="ild.out" freq="1" id="A3top0_2" lane="A3top0_2" pos="-50" endPos="-1"/>
  <laneAreaDetector file="ild.out" freq="1" id="top1B3_0" lane="top1B3_0" pos="-50" endPos="-1"/>
  <laneAreaDetector file="ild.out" freq="1" id="D0bottom3_2" lane="D0bottom3_2" pos="-50" endPos="-1"/>
  <laneAreaDetector file="ild.out" freq="1" id="A0left0_0" lane="A0left0_0" pos="-50" endPos="-1"/>
  <laneAreaDetector file="ild.out" freq="1" id="C2B2_0" lane="C2B2_0" pos="-50" endPos="-1"/>
  <laneAreaDetector file="ild.out" freq="1" id="D3C3_1" lane="D3C3_1" pos="-50" endPos="-1"/>
  <laneAreaDetector file="ild.out" freq="1" id="B3A3_2" lane="B3A3_2" pos="-50" endPos="-1"/>
  <laneAreaDetector file="ild.out" freq="1" id="D2D3_0" lane="D2D3_0" pos="-50" endPos="-1"/>
  <laneAreaDetector file="ild.out" freq="1" id="left1A1_1" lane="left1A1_1" pos="-50" endPos="-1"/>
  <laneAreaDetector file="ild.out" freq="1" id="C2C1_2" lane="C2C1_2" pos="-50" endPos="-1"/>
  <laneAreaDetector file="ild.out" freq="1" id="C3C2_1" lane="C3C2_1" pos="-50" endPos="-1"/>
  <laneAreaDetector file="ild.out" freq="1" id="D3D2_2" lane="D3D2_2" pos="-50" endPos="-1"/>
  <laneAreaDetector file="ild.out" freq="1" id="A2B2_1" lane="A2B2_1" pos="-50" endPos="-1"/>
  <laneAreaDetector file="ild.out" freq="1" id="B1C1_0" lane="B1C1_0" pos="-50" endPos="-1"/>
  <laneAreaDetector file="ild.out" freq="1" id="D0C0_2" lane="D0C0_2" pos="-50" endPos="-1"/>
  <laneAreaDetector file="ild.out" freq="1" id="D0bottom3_0" lane="D0bottom3_0" pos="-50" endPos="-1"/>
  <laneAreaDetector file="ild.out" freq="1" id="C3top2_1" lane="C3top2_1" pos="-50" endPos="-1"/>
  <laneAreaDetector file="ild.out" freq="1" id="C1C0_1" lane="C1C0_1" pos="-50" endPos="-1"/>
  <laneAreaDetector file="ild.out" freq="1" id="B3C3_2" lane="B3C3_2" pos="-50" endPos="-1"/>
  <laneAreaDetector file="ild.out" freq="1" id="right1D1_0" lane="right1D1_0" pos="-50" endPos="-1"/>
  <laneAreaDetector file="ild.out" freq="1" id="A0B0_0" lane="A0B0_0" pos="-50" endPos="-1"/>
  <laneAreaDetector file="ild.out" freq="1" id="A3A2_1" lane="A3A2_1" pos="-50" endPos="-1"/>
  <laneAreaDetector file="ild.out" freq="1" id="D3D2_0" lane="D3D2_0" pos="-50" endPos="-1"/>
  <laneAreaDetector file="ild.out" freq="1" id="D1D0_2" lane="D1D0_2" pos="-50" endPos="-1"/>
  <laneAreaDetector file="ild.out" freq="1" id="right2D2_2" lane="right2D2_2" pos="-50" endPos="-1"/>
  <laneAreaDetector file="ild.out" freq="1" id="D3top3_2" lane="D3top3_2" pos="-50" endPos="-1"/>
  <laneAreaDetector file="ild.out" freq="1" id="bottom1B0_2" lane="bottom1B0_2" pos="-50" endPos="-1"/>
  <laneAreaDetector file="ild.out" freq="1" id="C2D2_2" lane="C2D2_2" pos="-50" endPos="-1"/>
  <laneAreaDetector file="ild.out" freq="1" id="B1A1_2" lane="B1A1_2" pos="-50" endPos="-1"/>
  <laneAreaDetector file="ild.out" freq="1" id="B2C2_0" lane="B2C2_0" pos="-50" endPos="-1"/>
  <laneAreaDetector file="ild.out" freq="1" id="A3A2_0" lane="A3A2_0" pos="-50" endPos="-1"/>
  <laneAreaDetector file="ild.out" freq="1" id="B3top1_1" lane="B3top1_1" pos="-50" endPos="-1"/>
  <laneAreaDetector file="ild.out" freq="1" id="A2A3_1" lane="A2A3_1" pos="-50" endPos="-1"/>
</additional>