<additional>
  <laneAreaDetector file="ild.out" freq="1" id="nt6_nt5_1" lane="nt6_nt5_1" pos="-50" endPos="-1"/>
  <laneAreaDetector file="ild.out" freq="1" id="np10_nt15_0" lane="np10_nt15_0" pos="-50" endPos="-1"/>
  <laneAreaDetector file="ild.out" freq="1" id="nt11_nt10_1" lane="nt11_nt10_1" pos="-50" endPos="-1"/>
  <laneAreaDetector file="ild.out" freq="1" id="nt7_nt8_1" lane="nt7_nt8_1" pos="-50" endPos="-1"/>
  <laneAreaDetector file="ild.out" freq="1" id="nt15_nt11_0" lane="nt15_nt11_0" pos="-50" endPos="-1"/>
  <laneAreaDetector file="ild.out" freq="1" id="nt5_nt9_0" lane="nt5_nt9_0" pos="-50" endPos="-1"/>
  <laneAreaDetector file="ild.out" freq="1" id="np7_nt12_0" lane="np7_nt12_0" pos="-50" endPos="-1"/>
  <laneAreaDetector file="ild.out" freq="1" id="nt1_np16_0" lane="nt1_np16_0" pos="-50" endPos="-1"/>
  <laneAreaDetector file="ild.out" freq="1" id="np13_nt13_0" lane="np13_nt13_0" pos="-50" endPos="-1"/>
  <laneAreaDetector file="ild.out" freq="1" id="np11_nt14_0" lane="np11_nt14_0" pos="-50" endPos="-1"/>
  <laneAreaDetector file="ild.out" freq="1" id="nt6_nt5_0" lane="nt6_nt5_0" pos="-50" endPos="-1"/>
  <laneAreaDetector file="ild.out" freq="1" id="nt11_nt7_0" lane="nt11_nt7_0" pos="-50" endPos="-1"/>
  <laneAreaDetector file="ild.out" freq="1" id="np4_nt4_0" lane="np4_nt4_0" pos="-50" endPos="-1"/>
  <laneAreaDetector file="ild.out" freq="1" id="nt13_np12_0" lane="nt13_np12_0" pos="-50" endPos="-1"/>
  <laneAreaDetector file="ild.out" freq="1" id="nt1_nt5_0" lane="nt1_nt5_0" pos="-50" endPos="-1"/>
  <laneAreaDetector file="ild.out" freq="1" id="nt9_np14_0" lane="nt9_np14_0" pos="-50" endPos="-1"/>
  <laneAreaDetector file="ild.out" freq="1" id="nt4_np5_1" lane="nt4_np5_1" pos="-50" endPos="-1"/>
  <laneAreaDetector file="ild.out" freq="1" id="nt6_nt7_1" lane="nt6_nt7_1" pos="-50" endPos="-1"/>
  <laneAreaDetector file="ild.out" freq="1" id="np7_nt12_1" lane="np7_nt12_1" pos="-50" endPos="-1"/>
  <laneAreaDetector file="ild.out" freq="1" id="nt10_nt11_0" lane="nt10_nt11_0" pos="-50" endPos="-1"/>
  <laneAreaDetector file="ild.out" freq="1" id="nt11_nt12_1" lane="nt11_nt12_1" pos="-50" endPos="-1"/>
  <laneAreaDetector file="ild.out" freq="1" id="np15_nt5_0" lane="np15_nt5_0" pos="-50" endPos="-1"/>
  <laneAreaDetector file="ild.out" freq="1" id="nt11_nt10_0" lane="nt11_nt10_0" pos="-50" endPos="-1"/>
  <laneAreaDetector file="ild.out" freq="1" id="nt14_nt10_0" lane="nt14_nt10_0" pos="-50" endPos="-1"/>
  <laneAreaDetector file="ild.out" freq="1" id="nt15_nt16_0" lane="nt15_nt16_0" pos="-50" endPos="-1"/>
  <laneAreaDetector file="ild.out" freq="1" id="np6_nt8_1" lane="np6_nt8_1" pos="-50" endPos="-1"/>
  <laneAreaDetector file="ild.out" freq="1" id="nt9_nt10_0" lane="nt9_nt10_0" pos="-50" endPos="-1"/>
  <laneAreaDetector file="ild.out" freq="1" id="np14_nt9_1" lane="np14_nt9_1" pos="-50" endPos="-1"/>
  <laneAreaDetector file="ild.out" freq="1" id="nt5_nt6_1" lane="nt5_nt6_1" pos="-50" endPos="-1"/>
  <laneAreaDetector file="ild.out" freq="1" id="nt12_nt11_0" lane="nt12_nt11_0" pos="-50" endPos="-1"/>
  <laneAreaDetector file="ild.out" freq="1" id="nt10_nt9_1" lane="nt10_nt9_1" pos="-50" endPos="-1"/>
  <laneAreaDetector file="ild.out" freq="1" id="nt12_nt8_0" lane="nt12_nt8_0" pos="-50" endPos="-1"/>
  <laneAreaDetector file="ild.out" freq="1" id="nt4_np4_0" lane="nt4_np4_0" pos="-50" endPos="-1"/>
  <laneAreaDetector file="ild.out" freq="1" id="nt8_nt7_1" lane="nt8_nt7_1" pos="-50" endPos="-1"/>
  <laneAreaDetector file="ild.out" freq="1" id="nt1_nt2_1" lane="nt1_nt2_1" pos="-50" endPos="-1"/>
  <laneAreaDetector file="ild.out" freq="1" id="np1_nt1_0" lane="np1_nt1_0" pos="-50" endPos="-1"/>
  <laneAreaDetector file="ild.out" freq="1" id="nt5_nt1_0" lane="nt5_nt1_0" pos="-50" endPos="-1"/>
  <laneAreaDetector file="ild.out" freq="1" id="np5_nt4_0" lane="np5_nt4_0" pos="-50" endPos="-1"/>
  <laneAreaDetector file="ild.out" freq="1" id="np8_nt16_0" lane="np8_nt16_0" pos="-50" endPos="-1"/>
  <laneAreaDetector file="ild.out" freq="1" id="np8_nt16_1" lane="np8_nt16_1" pos="-50" endPos="-1"/>
  <laneAreaDetector file="ild.out" freq="1" id="nt2_nt3_1" lane="nt2_nt3_1" pos="-50" endPos="-1"/>
  <laneAreaDetector file="ild.out" freq="1" id="nt7_nt8_0" lane="nt7_nt8_0" pos="-50" endPos="-1"/>
  <laneAreaDetector file="ild.out" freq="1" id="nt14_np11_0" lane="nt14_np11_0" pos="-50" endPos="-1"/>
  <laneAreaDetector file="ild.out" freq="1" id="nt12_nt11_1" lane="nt12_nt11_1" pos="-50" endPos="-1"/>
  <laneAreaDetector file="ild.out" freq="1" id="nt5_nt6_0" lane="nt5_nt6_0" pos="-50" endPos="-1"/>
  <laneAreaDetector file="ild.out" freq="1" id="nt2_nt1_0" lane="nt2_nt1_0" pos="-50" endPos="-1"/>
  <laneAreaDetector file="ild.out" freq="1" id="nt10_nt6_0" lane="nt10_nt6_0" pos="-50" endPos="-1"/>
  <laneAreaDetector file="ild.out" freq="1" id="nt9_nt10_1" lane="nt9_nt10_1" pos="-50" endPos="-1"/>
  <laneAreaDetector file="ild.out" freq="1" id="np3_nt3_0" lane="np3_nt3_0" pos="-50" endPos="-1"/>
  <laneAreaDetector file="ild.out" freq="1" id="nt15_nt14_0" lane="nt15_nt14_0" pos="-50" endPos="-1"/>
  <laneAreaDetector file="ild.out" freq="1" id="nt13_nt14_0" lane="nt13_nt14_0" pos="-50" endPos="-1"/>
  <laneAreaDetector file="ild.out" freq="1" id="nt10_nt9_0" lane="nt10_nt9_0" pos="-50" endPos="-1"/>
  <laneAreaDetector file="ild.out" freq="1" id="nt11_nt12_0" lane="nt11_nt12_0" pos="-50" endPos="-1"/>
  <laneAreaDetector file="ild.out" freq="1" id="nt2_nt6_0" lane="nt2_nt6_0" pos="-50" endPos="-1"/>
  <laneAreaDetector file="ild.out" freq="1" id="nt13_nt14_1" lane="nt13_nt14_1" pos="-50" endPos="-1"/>
  <laneAreaDetector file="ild.out" freq="1" id="np2_nt2_0" lane="np2_nt2_0" pos="-50" endPos="-1"/>
  <laneAreaDetector file="ild.out" freq="1" id="np15_nt5_1" lane="np15_nt5_1" pos="-50" endPos="-1"/>
  <laneAreaDetector file="ild.out" freq="1" id="np6_nt8_0" lane="np6_nt8_0" pos="-50" endPos="-1"/>
  <laneAreaDetector file="ild.out" freq="1" id="nt12_nt16_0" lane="nt12_nt16_0" pos="-50" endPos="-1"/>
  <laneAreaDetector file="ild.out" freq="1" id="np9_nt16_0" lane="np9_nt16_0" pos="-50" endPos="-1"/>
  <laneAreaDetector file="ild.out" freq="1" id="nt3_nt7_0" lane="nt3_nt7_0" pos="-50" endPos="-1"/>
  <laneAreaDetector file="ild.out" freq="1" id="nt2_nt3_0" lane="nt2_nt3_0" pos="-50" endPos="-1"/>
  <laneAreaDetector file="ild.out" freq="1" id="nt8_nt4_0" lane="nt8_nt4_0" pos="-50" endPos="-1"/>
  <laneAreaDetector file="ild.out" freq="1" id="nt15_nt16_1" lane="nt15_nt16_1" pos="-50" endPos="-1"/>
  <laneAreaDetector file="ild.out" freq="1" id="nt14_nt15_0" lane="nt14_nt15_0" pos="-50" endPos="-1"/>
  <laneAreaDetector file="ild.out" freq="1" id="nt3_np3_0" lane="nt3_np3_0" pos="-50" endPos="-1"/>
  <laneAreaDetector file="ild.out" freq="1" id="np16_nt1_1" lane="np16_nt1_1" pos="-50" endPos="-1"/>
  <laneAreaDetector file="ild.out" freq="1" id="nt16_nt15_0" lane="nt16_nt15_0" pos="-50" endPos="-1"/>
  <laneAreaDetector file="ild.out" freq="1" id="np5_nt4_1" lane="np5_nt4_1" pos="-50" endPos="-1"/>
  <laneAreaDetector file="ild.out" freq="1" id="nt3_nt2_1" lane="nt3_nt2_1" pos="-50" endPos="-1"/>
  <laneAreaDetector file="ild.out" freq="1" id="nt7_nt6_0" lane="nt7_nt6_0" pos="-50" endPos="-1"/>
  <laneAreaDetector file="ild.out" freq="1" id="nt13_np13_0" lane="nt13_np13_0" pos="-50" endPos="-1"/>
  <laneAreaDetector file="ild.out" freq="1" id="nt8_nt7_0" lane="nt8_nt7_0" pos="-50" endPos="-1"/>
  <laneAreaDetector file="ild.out" freq="1" id="nt11_nt15_0" lane="nt11_nt15_0" pos="-50" endPos="-1"/>
  <laneAreaDetector file="ild.out" freq="1" id="np13_nt13_1" lane="np13_nt13_1" pos="-50" endPos="-1"/>
  <laneAreaDetector file="ild.out" freq="1" id="nt8_np6_1" lane="nt8_np6_1" pos="-50" endPos="-1"/>
  <laneAreaDetector file="ild.out" freq="1" id="nt6_nt7_0" lane="nt6_nt7_0" pos="-50" endPos="-1"/>
  <laneAreaDetector file="ild.out" freq="1" id="np14_nt9_0" lane="np14_nt9_0" pos="-50" endPos="-1"/>
  <laneAreaDetector file="ild.out" freq="1" id="nt16_nt12_0" lane="nt16_nt12_0" pos="-50" endPos="-1"/>
  <laneAreaDetector file="ild.out" freq="1" id="nt8_nt12_0" lane="nt8_nt12_0" pos="-50" endPos="-1"/>
  <laneAreaDetector file="ild.out" freq="1" id="nt1_nt2_0" lane="nt1_nt2_0" pos="-50" endPos="-1"/>
  <laneAreaDetector file="ild.out" freq="1" id="nt13_nt9_0" lane="nt13_nt9_0" pos="-50" endPos="-1"/>
  <laneAreaDetector file="ild.out" freq="1" id="nt13_np13_1" lane="nt13_np13_1" pos="-50" endPos="-1"/>
  <laneAreaDetector file="ild.out" freq="1" id="nt9_nt13_0" lane="nt9_nt13_0" pos="-50" endPos="-1"/>
  <laneAreaDetector file="ild.out" freq="1" id="nt6_nt2_0" lane="nt6_nt2_0" pos="-50" endPos="-1"/>
  <laneAreaDetector file="ild.out" freq="1" id="nt7_nt3_0" lane="nt7_nt3_0" pos="-50" endPos="-1"/>
  <laneAreaDetector file="ild.out" freq="1" id="nt7_nt6_1" lane="nt7_nt6_1" pos="-50" endPos="-1"/>
  <laneAreaDetector file="ild.out" freq="1" id="nt4_nt8_0" lane="nt4_nt8_0" pos="-50" endPos="-1"/>
  <laneAreaDetector file="ild.out" freq="1" id="nt5_np15_0" lane="nt5_np15_0" pos="-50" endPos="-1"/>
  <laneAreaDetector file="ild.out" freq="1" id="nt16_np8_1" lane="nt16_np8_1" pos="-50" endPos="-1"/>
  <laneAreaDetector file="ild.out" freq="1" id="nt4_nt3_0" lane="nt4_nt3_0" pos="-50" endPos="-1"/>
  <laneAreaDetector file="ild.out" freq="1" id="nt3_nt4_1" lane="nt3_nt4_1" pos="-50" endPos="-1"/>
  <laneAreaDetector file="ild.out" freq="1" id="nt2_nt1_1" lane="nt2_nt1_1" pos="-50" endPos="-1"/>
  <laneAreaDetector file="ild.out" freq="1" id="nt4_nt3_1" lane="nt4_nt3_1" pos="-50" endPos="-1"/>
  <laneAreaDetector file="ild.out" freq="1" id="nt8_np6_0" lane="nt8_np6_0" pos="-50" endPos="-1"/>
  <laneAreaDetector file="ild.out" freq="1" id="np12_nt13_0" lane="np12_nt13_0" pos="-50" endPos="-1"/>
  <laneAreaDetector file="ild.out" freq="1" id="np16_nt1_0" lane="np16_nt1_0" pos="-50" endPos="-1"/>
  <laneAreaDetector file="ild.out" freq="1" id="nt6_nt10_0" lane="nt6_nt10_0" pos="-50" endPos="-1"/>
  <laneAreaDetector file="ild.out" freq="1" id="nt5_np15_1" lane="nt5_np15_1" pos="-50" endPos="-1"/>
  <laneAreaDetector file="ild.out" freq="1" id="nt7_nt11_0" lane="nt7_nt11_0" pos="-50" endPos="-1"/>
  <laneAreaDetector file="ild.out" freq="1" id="nt12_np7_1" lane="nt12_np7_1" pos="-50" endPos="-1"/>
  <laneAreaDetector file="ild.out" freq="1" id="nt16_nt15_1" lane="nt16_nt15_1" pos="-50" endPos="-1"/>
  <laneAreaDetector file="ild.out" freq="1" id="nt9_nt5_0" lane="nt9_nt5_0" pos="-50" endPos="-1"/>
  <laneAreaDetector file="ild.out" freq="1" id="nt10_nt11_1" lane="nt10_nt11_1" pos="-50" endPos="-1"/>
  <laneAreaDetector file="ild.out" freq="1" id="nt14_nt13_1" lane="nt14_nt13_1" pos="-50" endPos="-1"/>
  <laneAreaDetector file="ild.out" freq="1" id="nt16_np8_0" lane="nt16_np8_0" pos="-50" endPos="-1"/>
  <laneAreaDetector file="ild.out" freq="1" id="nt15_nt14_1" lane="nt15_nt14_1" pos="-50" endPos="-1"/>
  <laneAreaDetector file="ild.out" freq="1" id="nt12_np7_0" lane="nt12_np7_0" pos="-50" endPos="-1"/>
  <laneAreaDetector file="ild.out" freq="1" id="nt14_nt13_0" lane="nt14_nt13_0" pos="-50" endPos="-1"/>
  <laneAreaDetector file="ild.out" freq="1" id="nt4_np5_0" lane="nt4_np5_0" pos="-50" endPos="-1"/>
  <laneAreaDetector file="ild.out" freq="1" id="nt15_np10_0" lane="nt15_np10_0" pos="-50" endPos="-1"/>
  <laneAreaDetector file="ild.out" freq="1" id="nt3_nt2_0" lane="nt3_nt2_0" pos="-50" endPos="-1"/>
  <laneAreaDetector file="ild.out" freq="1" id="nt2_np2_0" lane="nt2_np2_0" pos="-50" endPos="-1"/>
  <laneAreaDetector file="ild.out" freq="1" id="nt14_nt15_1" lane="nt14_nt15_1" pos="-50" endPos="-1"/>
  <laneAreaDetector file="ild.out" freq="1" id="nt9_np14_1" lane="nt9_np14_1" pos="-50" endPos="-1"/>
  <laneAreaDetector file="ild.out" freq="1" id="nt1_np1_0" lane="nt1_np1_0" pos="-50" endPos="-1"/>
  <laneAreaDetector file="ild.out" freq="1" id="nt16_np9_0" lane="nt16_np9_0" pos="-50" endPos="-1"/>
  <laneAreaDetector file="ild.out" freq="1" id="nt1_np16_1" lane="nt1_np16_1" pos="-50" endPos="-1"/>
  <laneAreaDetector file="ild.out" freq="1" id="nt3_nt4_0" lane="nt3_nt4_0" pos="-50" endPos="-1"/>
  <laneAreaDetector file="ild.out" freq="1" id="nt10_nt14_0" lane="nt10_nt14_0" pos="-50" endPos="-1"/>
</additional>