<?xml version="1.0" encoding="UTF-8"?>

<!-- generated on 03/28/21 23:26:30 by Eclipse SUMO netconvert Version 1.8.0
<configuration xmlns:xsi="http://www.w3.org/2001/XMLSchema-instance" xsi:noNamespaceSchemaLocation="http://sumo.dlr.de/xsd/netconvertConfiguration.xsd">

    <input>
        <node-files value="exp.nod.xml"/>
        <edge-files value="exp.edg.xml"/>
        <connection-files value="exp.con.xml"/>
        <tllogic-files value="exp.tll.xml"/>
        <type-files value="exp.typ.xml"/>
    </input>

    <output>
        <output-file value="grid_network_4_4.net.xml"/>
    </output>

    <report>
        <aggregate-warnings value="5"/>
    </report>

</configuration>
-->

<net version="1.6" junctionCornerDetail="5" limitTurnSpeed="5.50" xmlns:xsi="http://www.w3.org/2001/XMLSchema-instance" xsi:noNamespaceSchemaLocation="http://sumo.dlr.de/xsd/net_file.xsd">

    <location netOffset="200.00,200.00" convBoundary="0.00,0.00,1200.00,1200.00" origBoundary="-200.00,-200.00,1000.00,1000.00" projParameter="!"/>

    <type id="a" priority="2" numLanes="2" speed="20.00"/>
    <type id="b" priority="1" numLanes="1" speed="11.00"/>

    <edge id=":np1_0" function="internal">
        <lane id=":np1_0_0" index="0" speed="3.65" length="4.67" shape="198.40,0.00 199.20,-1.20 200.00,-1.60 200.80,-1.20 201.60,0.00"/>
    </edge>
    <edge id=":np10_0" function="internal">
        <lane id=":np10_0_0" index="0" speed="3.65" length="4.67" shape="1200.00,998.40 1201.20,999.20 1201.60,1000.00 1201.20,1000.80 1200.00,1001.60"/>
    </edge>
    <edge id=":np11_0" function="internal">
        <lane id=":np11_0_0" index="0" speed="3.65" length="4.67" shape="1001.60,1200.00 1000.80,1201.20 1000.00,1201.60 999.20,1201.20 998.40,1200.00"/>
    </edge>
    <edge id=":np12_0" function="internal">
        <lane id=":np12_0_0" index="0" speed="3.65" length="4.67" shape="801.60,1200.00 800.80,1201.20 800.00,1201.60 799.20,1201.20 798.40,1200.00"/>
    </edge>
    <edge id=":np13_0" function="internal">
        <lane id=":np13_0_0" index="0" speed="3.65" length="4.67" shape="601.60,1200.00 600.80,1201.20 600.00,1201.60 599.20,1201.20 598.40,1200.00"/>
    </edge>
    <edge id=":np14_0" function="internal">
        <lane id=":np14_0_0" index="0" speed="3.65" length="4.67" shape="401.60,1200.00 400.80,1201.20 400.00,1201.60 399.20,1201.20 398.40,1200.00"/>
    </edge>
    <edge id=":np15_0" function="internal">
        <lane id=":np15_0_0" index="0" speed="3.65" length="4.67" shape="201.60,1200.00 200.80,1201.20 200.00,1201.60 199.20,1201.20 198.40,1200.00"/>
    </edge>
    <edge id=":np16_0" function="internal">
        <lane id=":np16_0_0" index="0" speed="3.65" length="4.67" shape="0.00,1001.60 -1.20,1000.80 -1.60,1000.00 -1.20,999.20 0.00,998.40"/>
    </edge>
    <edge id=":np17_0" function="internal">
        <lane id=":np17_0_0" index="0" speed="3.65" length="4.67" shape="0.00,801.60 -1.20,800.80 -1.60,800.00 -1.20,799.20 0.00,798.40"/>
    </edge>
    <edge id=":np18_0" function="internal">
        <lane id=":np18_0_0" index="0" speed="3.65" length="4.67" shape="0.00,601.60 -1.20,600.80 -1.60,600.00 -1.20,599.20 0.00,598.40"/>
    </edge>
    <edge id=":np19_0" function="internal">
        <lane id=":np19_0_0" index="0" speed="3.65" length="4.67" shape="0.00,401.60 -1.20,400.80 -1.60,400.00 -1.20,399.20 0.00,398.40"/>
    </edge>
    <edge id=":np2_0" function="internal">
        <lane id=":np2_0_0" index="0" speed="3.65" length="4.67" shape="398.40,0.00 399.20,-1.20 400.00,-1.60 400.80,-1.20 401.60,0.00"/>
    </edge>
    <edge id=":np20_0" function="internal">
        <lane id=":np20_0_0" index="0" speed="3.65" length="4.67" shape="0.00,201.60 -1.20,200.80 -1.60,200.00 -1.20,199.20 0.00,198.40"/>
    </edge>
    <edge id=":np3_0" function="internal">
        <lane id=":np3_0_0" index="0" speed="3.65" length="4.67" shape="598.40,0.00 599.20,-1.20 600.00,-1.60 600.80,-1.20 601.60,0.00"/>
    </edge>
    <edge id=":np4_0" function="internal">
        <lane id=":np4_0_0" index="0" speed="3.65" length="4.67" shape="798.40,0.00 799.20,-1.20 800.00,-1.60 800.80,-1.20 801.60,0.00"/>
    </edge>
    <edge id=":np5_0" function="internal">
        <lane id=":np5_0_0" index="0" speed="3.65" length="4.67" shape="998.40,0.00 999.20,-1.20 1000.00,-1.60 1000.80,-1.20 1001.60,0.00"/>
    </edge>
    <edge id=":np6_0" function="internal">
        <lane id=":np6_0_0" index="0" speed="3.65" length="4.67" shape="1200.00,198.40 1201.20,199.20 1201.60,200.00 1201.20,200.80 1200.00,201.60"/>
    </edge>
    <edge id=":np7_0" function="internal">
        <lane id=":np7_0_0" index="0" speed="3.65" length="4.67" shape="1200.00,398.40 1201.20,399.20 1201.60,400.00 1201.20,400.80 1200.00,401.60"/>
    </edge>
    <edge id=":np8_0" function="internal">
        <lane id=":np8_0_0" index="0" speed="3.65" length="4.67" shape="1200.00,598.40 1201.20,599.20 1201.60,600.00 1201.20,600.80 1200.00,601.60"/>
    </edge>
    <edge id=":np9_0" function="internal">
        <lane id=":np9_0_0" index="0" speed="3.65" length="4.67" shape="1200.00,798.40 1201.20,799.20 1201.60,800.00 1201.20,800.80 1200.00,801.60"/>
    </edge>
    <edge id=":nt1_0" function="internal">
        <lane id=":nt1_0_0" index="0" speed="6.51" length="9.03" shape="198.40,210.40 198.05,207.95 197.00,206.20 195.25,205.15 192.80,204.80"/>
    </edge>
    <edge id=":nt1_1" function="internal">
        <lane id=":nt1_1_0" index="0" speed="11.00" length="20.80" shape="198.40,210.40 198.40,189.60"/>
    </edge>
    <edge id=":nt1_2" function="internal">
        <lane id=":nt1_2_0" index="0" speed="8.67" length="7.89" shape="198.40,210.40 198.95,205.15 200.00,202.76"/>
    </edge>
    <edge id=":nt1_12" function="internal">
        <lane id=":nt1_12_0" index="0" speed="8.67" length="8.97" shape="200.00,202.76 200.60,201.40 203.35,199.15 207.20,198.40"/>
    </edge>
    <edge id=":nt1_3" function="internal">
        <lane id=":nt1_3_0" index="0" speed="6.51" length="9.03" shape="207.20,204.80 204.75,205.15 203.00,206.20 201.95,207.95 201.60,210.40"/>
    </edge>
    <edge id=":nt1_4" function="internal">
        <lane id=":nt1_4_0" index="0" speed="20.00" length="14.40" shape="207.20,204.80 192.80,204.80"/>
    </edge>
    <edge id=":nt1_5" function="internal">
        <lane id=":nt1_5_0" index="0" speed="8.67" length="16.85" shape="207.20,201.60 203.35,200.85 200.60,198.60 198.95,194.85 198.40,189.60"/>
    </edge>
    <edge id=":nt1_6" function="internal">
        <lane id=":nt1_6_0" index="0" speed="6.51" length="9.03" shape="201.60,189.60 201.95,192.05 203.00,193.80 204.75,194.85 207.20,195.20"/>
    </edge>
    <edge id=":nt1_7" function="internal">
        <lane id=":nt1_7_0" index="0" speed="11.00" length="20.80" shape="201.60,189.60 201.60,210.40"/>
    </edge>
    <edge id=":nt1_8" function="internal">
        <lane id=":nt1_8_0" index="0" speed="8.67" length="7.89" shape="201.60,189.60 201.05,194.85 200.00,197.24"/>
    </edge>
    <edge id=":nt1_13" function="internal">
        <lane id=":nt1_13_0" index="0" speed="8.67" length="8.97" shape="200.00,197.24 199.40,198.60 196.65,200.85 192.80,201.60"/>
    </edge>
    <edge id=":nt1_9" function="internal">
        <lane id=":nt1_9_0" index="0" speed="6.51" length="9.03" shape="192.80,195.20 195.25,194.85 197.00,193.80 198.05,192.05 198.40,189.60"/>
    </edge>
    <edge id=":nt1_10" function="internal">
        <lane id=":nt1_10_0" index="0" speed="20.00" length="14.40" shape="192.80,195.20 207.20,195.20"/>
    </edge>
    <edge id=":nt1_11" function="internal">
        <lane id=":nt1_11_0" index="0" speed="8.67" length="16.85" shape="192.80,198.40 196.65,199.15 199.40,201.40 201.05,205.15 201.60,210.40"/>
    </edge>
    <edge id=":nt10_0" function="internal">
        <lane id=":nt10_0_0" index="0" speed="6.51" length="9.03" shape="998.40,410.40 998.05,407.95 997.00,406.20 995.25,405.15 992.80,404.80"/>
    </edge>
    <edge id=":nt10_1" function="internal">
        <lane id=":nt10_1_0" index="0" speed="11.00" length="20.80" shape="998.40,410.40 998.40,389.60"/>
    </edge>
    <edge id=":nt10_2" function="internal">
        <lane id=":nt10_2_0" index="0" speed="8.67" length="7.89" shape="998.40,410.40 998.95,405.15 1000.00,402.76"/>
    </edge>
    <edge id=":nt10_12" function="internal">
        <lane id=":nt10_12_0" index="0" speed="8.67" length="8.97" shape="1000.00,402.76 1000.60,401.40 1003.35,399.15 1007.20,398.40"/>
    </edge>
    <edge id=":nt10_3" function="internal">
        <lane id=":nt10_3_0" index="0" speed="6.51" length="9.03" shape="1007.20,404.80 1004.75,405.15 1003.00,406.20 1001.95,407.95 1001.60,410.40"/>
    </edge>
    <edge id=":nt10_4" function="internal">
        <lane id=":nt10_4_0" index="0" speed="20.00" length="14.40" shape="1007.20,404.80 992.80,404.80"/>
    </edge>
    <edge id=":nt10_5" function="internal">
        <lane id=":nt10_5_0" index="0" speed="8.67" length="16.85" shape="1007.20,401.60 1003.35,400.85 1000.60,398.60 998.95,394.85 998.40,389.60"/>
    </edge>
    <edge id=":nt10_6" function="internal">
        <lane id=":nt10_6_0" index="0" speed="6.51" length="9.03" shape="1001.60,389.60 1001.95,392.05 1003.00,393.80 1004.75,394.85 1007.20,395.20"/>
    </edge>
    <edge id=":nt10_7" function="internal">
        <lane id=":nt10_7_0" index="0" speed="11.00" length="20.80" shape="1001.60,389.60 1001.60,410.40"/>
    </edge>
    <edge id=":nt10_8" function="internal">
        <lane id=":nt10_8_0" index="0" speed="8.67" length="7.89" shape="1001.60,389.60 1001.05,394.85 1000.00,397.24"/>
    </edge>
    <edge id=":nt10_13" function="internal">
        <lane id=":nt10_13_0" index="0" speed="8.67" length="8.97" shape="1000.00,397.24 999.40,398.60 996.65,400.85 992.80,401.60"/>
    </edge>
    <edge id=":nt10_9" function="internal">
        <lane id=":nt10_9_0" index="0" speed="6.51" length="9.03" shape="992.80,395.20 995.25,394.85 997.00,393.80 998.05,392.05 998.40,389.60"/>
    </edge>
    <edge id=":nt10_10" function="internal">
        <lane id=":nt10_10_0" index="0" speed="20.00" length="14.40" shape="992.80,395.20 1007.20,395.20"/>
    </edge>
    <edge id=":nt10_11" function="internal">
        <lane id=":nt10_11_0" index="0" speed="8.67" length="16.85" shape="992.80,398.40 996.65,399.15 999.40,401.40 1001.05,405.15 1001.60,410.40"/>
    </edge>
    <edge id=":nt11_0" function="internal">
        <lane id=":nt11_0_0" index="0" speed="6.51" length="9.03" shape="198.40,610.40 198.05,607.95 197.00,606.20 195.25,605.15 192.80,604.80"/>
    </edge>
    <edge id=":nt11_1" function="internal">
        <lane id=":nt11_1_0" index="0" speed="11.00" length="20.80" shape="198.40,610.40 198.40,589.60"/>
    </edge>
    <edge id=":nt11_2" function="internal">
        <lane id=":nt11_2_0" index="0" speed="8.67" length="7.89" shape="198.40,610.40 198.95,605.15 200.00,602.76"/>
    </edge>
    <edge id=":nt11_12" function="internal">
        <lane id=":nt11_12_0" index="0" speed="8.67" length="8.97" shape="200.00,602.76 200.60,601.40 203.35,599.15 207.20,598.40"/>
    </edge>
    <edge id=":nt11_3" function="internal">
        <lane id=":nt11_3_0" index="0" speed="6.51" length="9.03" shape="207.20,604.80 204.75,605.15 203.00,606.20 201.95,607.95 201.60,610.40"/>
    </edge>
    <edge id=":nt11_4" function="internal">
        <lane id=":nt11_4_0" index="0" speed="20.00" length="14.40" shape="207.20,604.80 192.80,604.80"/>
    </edge>
    <edge id=":nt11_5" function="internal">
        <lane id=":nt11_5_0" index="0" speed="8.67" length="16.85" shape="207.20,601.60 203.35,600.85 200.60,598.60 198.95,594.85 198.40,589.60"/>
    </edge>
    <edge id=":nt11_6" function="internal">
        <lane id=":nt11_6_0" index="0" speed="6.51" length="9.03" shape="201.60,589.60 201.95,592.05 203.00,593.80 204.75,594.85 207.20,595.20"/>
    </edge>
    <edge id=":nt11_7" function="internal">
        <lane id=":nt11_7_0" index="0" speed="11.00" length="20.80" shape="201.60,589.60 201.60,610.40"/>
    </edge>
    <edge id=":nt11_8" function="internal">
        <lane id=":nt11_8_0" index="0" speed="8.67" length="7.89" shape="201.60,589.60 201.05,594.85 200.00,597.24"/>
    </edge>
    <edge id=":nt11_13" function="internal">
        <lane id=":nt11_13_0" index="0" speed="8.67" length="8.97" shape="200.00,597.24 199.40,598.60 196.65,600.85 192.80,601.60"/>
    </edge>
    <edge id=":nt11_9" function="internal">
        <lane id=":nt11_9_0" index="0" speed="6.51" length="9.03" shape="192.80,595.20 195.25,594.85 197.00,593.80 198.05,592.05 198.40,589.60"/>
    </edge>
    <edge id=":nt11_10" function="internal">
        <lane id=":nt11_10_0" index="0" speed="20.00" length="14.40" shape="192.80,595.20 207.20,595.20"/>
    </edge>
    <edge id=":nt11_11" function="internal">
        <lane id=":nt11_11_0" index="0" speed="8.67" length="16.85" shape="192.80,598.40 196.65,599.15 199.40,601.40 201.05,605.15 201.60,610.40"/>
    </edge>
    <edge id=":nt12_0" function="internal">
        <lane id=":nt12_0_0" index="0" speed="6.51" length="9.03" shape="398.40,610.40 398.05,607.95 397.00,606.20 395.25,605.15 392.80,604.80"/>
    </edge>
    <edge id=":nt12_1" function="internal">
        <lane id=":nt12_1_0" index="0" speed="11.00" length="20.80" shape="398.40,610.40 398.40,589.60"/>
    </edge>
    <edge id=":nt12_2" function="internal">
        <lane id=":nt12_2_0" index="0" speed="8.67" length="7.89" shape="398.40,610.40 398.95,605.15 400.00,602.76"/>
    </edge>
    <edge id=":nt12_12" function="internal">
        <lane id=":nt12_12_0" index="0" speed="8.67" length="8.97" shape="400.00,602.76 400.60,601.40 403.35,599.15 407.20,598.40"/>
    </edge>
    <edge id=":nt12_3" function="internal">
        <lane id=":nt12_3_0" index="0" speed="6.51" length="9.03" shape="407.20,604.80 404.75,605.15 403.00,606.20 401.95,607.95 401.60,610.40"/>
    </edge>
    <edge id=":nt12_4" function="internal">
        <lane id=":nt12_4_0" index="0" speed="20.00" length="14.40" shape="407.20,604.80 392.80,604.80"/>
    </edge>
    <edge id=":nt12_5" function="internal">
        <lane id=":nt12_5_0" index="0" speed="8.67" length="16.85" shape="407.20,601.60 403.35,600.85 400.60,598.60 398.95,594.85 398.40,589.60"/>
    </edge>
    <edge id=":nt12_6" function="internal">
        <lane id=":nt12_6_0" index="0" speed="6.51" length="9.03" shape="401.60,589.60 401.95,592.05 403.00,593.80 404.75,594.85 407.20,595.20"/>
    </edge>
    <edge id=":nt12_7" function="internal">
        <lane id=":nt12_7_0" index="0" speed="11.00" length="20.80" shape="401.60,589.60 401.60,610.40"/>
    </edge>
    <edge id=":nt12_8" function="internal">
        <lane id=":nt12_8_0" index="0" speed="8.67" length="7.89" shape="401.60,589.60 401.05,594.85 400.00,597.24"/>
    </edge>
    <edge id=":nt12_13" function="internal">
        <lane id=":nt12_13_0" index="0" speed="8.67" length="8.97" shape="400.00,597.24 399.40,598.60 396.65,600.85 392.80,601.60"/>
    </edge>
    <edge id=":nt12_9" function="internal">
        <lane id=":nt12_9_0" index="0" speed="6.51" length="9.03" shape="392.80,595.20 395.25,594.85 397.00,593.80 398.05,592.05 398.40,589.60"/>
    </edge>
    <edge id=":nt12_10" function="internal">
        <lane id=":nt12_10_0" index="0" speed="20.00" length="14.40" shape="392.80,595.20 407.20,595.20"/>
    </edge>
    <edge id=":nt12_11" function="internal">
        <lane id=":nt12_11_0" index="0" speed="8.67" length="16.85" shape="392.80,598.40 396.65,599.15 399.40,601.40 401.05,605.15 401.60,610.40"/>
    </edge>
    <edge id=":nt13_0" function="internal">
        <lane id=":nt13_0_0" index="0" speed="6.51" length="9.03" shape="598.40,610.40 598.05,607.95 597.00,606.20 595.25,605.15 592.80,604.80"/>
    </edge>
    <edge id=":nt13_1" function="internal">
        <lane id=":nt13_1_0" index="0" speed="11.00" length="20.80" shape="598.40,610.40 598.40,589.60"/>
    </edge>
    <edge id=":nt13_2" function="internal">
        <lane id=":nt13_2_0" index="0" speed="8.67" length="7.89" shape="598.40,610.40 598.95,605.15 600.00,602.76"/>
    </edge>
    <edge id=":nt13_12" function="internal">
        <lane id=":nt13_12_0" index="0" speed="8.67" length="8.97" shape="600.00,602.76 600.60,601.40 603.35,599.15 607.20,598.40"/>
    </edge>
    <edge id=":nt13_3" function="internal">
        <lane id=":nt13_3_0" index="0" speed="6.51" length="9.03" shape="607.20,604.80 604.75,605.15 603.00,606.20 601.95,607.95 601.60,610.40"/>
    </edge>
    <edge id=":nt13_4" function="internal">
        <lane id=":nt13_4_0" index="0" speed="20.00" length="14.40" shape="607.20,604.80 592.80,604.80"/>
    </edge>
    <edge id=":nt13_5" function="internal">
        <lane id=":nt13_5_0" index="0" speed="8.67" length="16.85" shape="607.20,601.60 603.35,600.85 600.60,598.60 598.95,594.85 598.40,589.60"/>
    </edge>
    <edge id=":nt13_6" function="internal">
        <lane id=":nt13_6_0" index="0" speed="6.51" length="9.03" shape="601.60,589.60 601.95,592.05 603.00,593.80 604.75,594.85 607.20,595.20"/>
    </edge>
    <edge id=":nt13_7" function="internal">
        <lane id=":nt13_7_0" index="0" speed="11.00" length="20.80" shape="601.60,589.60 601.60,610.40"/>
    </edge>
    <edge id=":nt13_8" function="internal">
        <lane id=":nt13_8_0" index="0" speed="8.67" length="7.89" shape="601.60,589.60 601.05,594.85 600.00,597.24"/>
    </edge>
    <edge id=":nt13_13" function="internal">
        <lane id=":nt13_13_0" index="0" speed="8.67" length="8.97" shape="600.00,597.24 599.40,598.60 596.65,600.85 592.80,601.60"/>
    </edge>
    <edge id=":nt13_9" function="internal">
        <lane id=":nt13_9_0" index="0" speed="6.51" length="9.03" shape="592.80,595.20 595.25,594.85 597.00,593.80 598.05,592.05 598.40,589.60"/>
    </edge>
    <edge id=":nt13_10" function="internal">
        <lane id=":nt13_10_0" index="0" speed="20.00" length="14.40" shape="592.80,595.20 607.20,595.20"/>
    </edge>
    <edge id=":nt13_11" function="internal">
        <lane id=":nt13_11_0" index="0" speed="8.67" length="16.85" shape="592.80,598.40 596.65,599.15 599.40,601.40 601.05,605.15 601.60,610.40"/>
    </edge>
    <edge id=":nt14_0" function="internal">
        <lane id=":nt14_0_0" index="0" speed="6.51" length="9.03" shape="798.40,610.40 798.05,607.95 797.00,606.20 795.25,605.15 792.80,604.80"/>
    </edge>
    <edge id=":nt14_1" function="internal">
        <lane id=":nt14_1_0" index="0" speed="11.00" length="20.80" shape="798.40,610.40 798.40,589.60"/>
    </edge>
    <edge id=":nt14_2" function="internal">
        <lane id=":nt14_2_0" index="0" speed="8.67" length="7.89" shape="798.40,610.40 798.95,605.15 800.00,602.76"/>
    </edge>
    <edge id=":nt14_12" function="internal">
        <lane id=":nt14_12_0" index="0" speed="8.67" length="8.97" shape="800.00,602.76 800.60,601.40 803.35,599.15 807.20,598.40"/>
    </edge>
    <edge id=":nt14_3" function="internal">
        <lane id=":nt14_3_0" index="0" speed="6.51" length="9.03" shape="807.20,604.80 804.75,605.15 803.00,606.20 801.95,607.95 801.60,610.40"/>
    </edge>
    <edge id=":nt14_4" function="internal">
        <lane id=":nt14_4_0" index="0" speed="20.00" length="14.40" shape="807.20,604.80 792.80,604.80"/>
    </edge>
    <edge id=":nt14_5" function="internal">
        <lane id=":nt14_5_0" index="0" speed="8.67" length="16.85" shape="807.20,601.60 803.35,600.85 800.60,598.60 798.95,594.85 798.40,589.60"/>
    </edge>
    <edge id=":nt14_6" function="internal">
        <lane id=":nt14_6_0" index="0" speed="6.51" length="9.03" shape="801.60,589.60 801.95,592.05 803.00,593.80 804.75,594.85 807.20,595.20"/>
    </edge>
    <edge id=":nt14_7" function="internal">
        <lane id=":nt14_7_0" index="0" speed="11.00" length="20.80" shape="801.60,589.60 801.60,610.40"/>
    </edge>
    <edge id=":nt14_8" function="internal">
        <lane id=":nt14_8_0" index="0" speed="8.67" length="7.89" shape="801.60,589.60 801.05,594.85 800.00,597.24"/>
    </edge>
    <edge id=":nt14_13" function="internal">
        <lane id=":nt14_13_0" index="0" speed="8.67" length="8.97" shape="800.00,597.24 799.40,598.60 796.65,600.85 792.80,601.60"/>
    </edge>
    <edge id=":nt14_9" function="internal">
        <lane id=":nt14_9_0" index="0" speed="6.51" length="9.03" shape="792.80,595.20 795.25,594.85 797.00,593.80 798.05,592.05 798.40,589.60"/>
    </edge>
    <edge id=":nt14_10" function="internal">
        <lane id=":nt14_10_0" index="0" speed="20.00" length="14.40" shape="792.80,595.20 807.20,595.20"/>
    </edge>
    <edge id=":nt14_11" function="internal">
        <lane id=":nt14_11_0" index="0" speed="8.67" length="16.85" shape="792.80,598.40 796.65,599.15 799.40,601.40 801.05,605.15 801.60,610.40"/>
    </edge>
    <edge id=":nt15_0" function="internal">
        <lane id=":nt15_0_0" index="0" speed="6.51" length="9.03" shape="998.40,610.40 998.05,607.95 997.00,606.20 995.25,605.15 992.80,604.80"/>
    </edge>
    <edge id=":nt15_1" function="internal">
        <lane id=":nt15_1_0" index="0" speed="11.00" length="20.80" shape="998.40,610.40 998.40,589.60"/>
    </edge>
    <edge id=":nt15_2" function="internal">
        <lane id=":nt15_2_0" index="0" speed="8.67" length="7.89" shape="998.40,610.40 998.95,605.15 1000.00,602.76"/>
    </edge>
    <edge id=":nt15_12" function="internal">
        <lane id=":nt15_12_0" index="0" speed="8.67" length="8.97" shape="1000.00,602.76 1000.60,601.40 1003.35,599.15 1007.20,598.40"/>
    </edge>
    <edge id=":nt15_3" function="internal">
        <lane id=":nt15_3_0" index="0" speed="6.51" length="9.03" shape="1007.20,604.80 1004.75,605.15 1003.00,606.20 1001.95,607.95 1001.60,610.40"/>
    </edge>
    <edge id=":nt15_4" function="internal">
        <lane id=":nt15_4_0" index="0" speed="20.00" length="14.40" shape="1007.20,604.80 992.80,604.80"/>
    </edge>
    <edge id=":nt15_5" function="internal">
        <lane id=":nt15_5_0" index="0" speed="8.67" length="16.85" shape="1007.20,601.60 1003.35,600.85 1000.60,598.60 998.95,594.85 998.40,589.60"/>
    </edge>
    <edge id=":nt15_6" function="internal">
        <lane id=":nt15_6_0" index="0" speed="6.51" length="9.03" shape="1001.60,589.60 1001.95,592.05 1003.00,593.80 1004.75,594.85 1007.20,595.20"/>
    </edge>
    <edge id=":nt15_7" function="internal">
        <lane id=":nt15_7_0" index="0" speed="11.00" length="20.80" shape="1001.60,589.60 1001.60,610.40"/>
    </edge>
    <edge id=":nt15_8" function="internal">
        <lane id=":nt15_8_0" index="0" speed="8.67" length="7.89" shape="1001.60,589.60 1001.05,594.85 1000.00,597.24"/>
    </edge>
    <edge id=":nt15_13" function="internal">
        <lane id=":nt15_13_0" index="0" speed="8.67" length="8.97" shape="1000.00,597.24 999.40,598.60 996.65,600.85 992.80,601.60"/>
    </edge>
    <edge id=":nt15_9" function="internal">
        <lane id=":nt15_9_0" index="0" speed="6.51" length="9.03" shape="992.80,595.20 995.25,594.85 997.00,593.80 998.05,592.05 998.40,589.60"/>
    </edge>
    <edge id=":nt15_10" function="internal">
        <lane id=":nt15_10_0" index="0" speed="20.00" length="14.40" shape="992.80,595.20 1007.20,595.20"/>
    </edge>
    <edge id=":nt15_11" function="internal">
        <lane id=":nt15_11_0" index="0" speed="8.67" length="16.85" shape="992.80,598.40 996.65,599.15 999.40,601.40 1001.05,605.15 1001.60,610.40"/>
    </edge>
    <edge id=":nt16_0" function="internal">
        <lane id=":nt16_0_0" index="0" speed="6.51" length="9.03" shape="198.40,810.40 198.05,807.95 197.00,806.20 195.25,805.15 192.80,804.80"/>
    </edge>
    <edge id=":nt16_1" function="internal">
        <lane id=":nt16_1_0" index="0" speed="11.00" length="20.80" shape="198.40,810.40 198.40,789.60"/>
    </edge>
    <edge id=":nt16_2" function="internal">
        <lane id=":nt16_2_0" index="0" speed="8.67" length="7.89" shape="198.40,810.40 198.95,805.15 200.00,802.76"/>
    </edge>
    <edge id=":nt16_12" function="internal">
        <lane id=":nt16_12_0" index="0" speed="8.67" length="8.97" shape="200.00,802.76 200.60,801.40 203.35,799.15 207.20,798.40"/>
    </edge>
    <edge id=":nt16_3" function="internal">
        <lane id=":nt16_3_0" index="0" speed="6.51" length="9.03" shape="207.20,804.80 204.75,805.15 203.00,806.20 201.95,807.95 201.60,810.40"/>
    </edge>
    <edge id=":nt16_4" function="internal">
        <lane id=":nt16_4_0" index="0" speed="20.00" length="14.40" shape="207.20,804.80 192.80,804.80"/>
    </edge>
    <edge id=":nt16_5" function="internal">
        <lane id=":nt16_5_0" index="0" speed="8.67" length="16.85" shape="207.20,801.60 203.35,800.85 200.60,798.60 198.95,794.85 198.40,789.60"/>
    </edge>
    <edge id=":nt16_6" function="internal">
        <lane id=":nt16_6_0" index="0" speed="6.51" length="9.03" shape="201.60,789.60 201.95,792.05 203.00,793.80 204.75,794.85 207.20,795.20"/>
    </edge>
    <edge id=":nt16_7" function="internal">
        <lane id=":nt16_7_0" index="0" speed="11.00" length="20.80" shape="201.60,789.60 201.60,810.40"/>
    </edge>
    <edge id=":nt16_8" function="internal">
        <lane id=":nt16_8_0" index="0" speed="8.67" length="7.89" shape="201.60,789.60 201.05,794.85 200.00,797.24"/>
    </edge>
    <edge id=":nt16_13" function="internal">
        <lane id=":nt16_13_0" index="0" speed="8.67" length="8.97" shape="200.00,797.24 199.40,798.60 196.65,800.85 192.80,801.60"/>
    </edge>
    <edge id=":nt16_9" function="internal">
        <lane id=":nt16_9_0" index="0" speed="6.51" length="9.03" shape="192.80,795.20 195.25,794.85 197.00,793.80 198.05,792.05 198.40,789.60"/>
    </edge>
    <edge id=":nt16_10" function="internal">
        <lane id=":nt16_10_0" index="0" speed="20.00" length="14.40" shape="192.80,795.20 207.20,795.20"/>
    </edge>
    <edge id=":nt16_11" function="internal">
        <lane id=":nt16_11_0" index="0" speed="8.67" length="16.85" shape="192.80,798.40 196.65,799.15 199.40,801.40 201.05,805.15 201.60,810.40"/>
    </edge>
    <edge id=":nt17_0" function="internal">
        <lane id=":nt17_0_0" index="0" speed="6.51" length="9.03" shape="398.40,810.40 398.05,807.95 397.00,806.20 395.25,805.15 392.80,804.80"/>
    </edge>
    <edge id=":nt17_1" function="internal">
        <lane id=":nt17_1_0" index="0" speed="11.00" length="20.80" shape="398.40,810.40 398.40,789.60"/>
    </edge>
    <edge id=":nt17_2" function="internal">
        <lane id=":nt17_2_0" index="0" speed="8.67" length="7.89" shape="398.40,810.40 398.95,805.15 400.00,802.76"/>
    </edge>
    <edge id=":nt17_12" function="internal">
        <lane id=":nt17_12_0" index="0" speed="8.67" length="8.97" shape="400.00,802.76 400.60,801.40 403.35,799.15 407.20,798.40"/>
    </edge>
    <edge id=":nt17_3" function="internal">
        <lane id=":nt17_3_0" index="0" speed="6.51" length="9.03" shape="407.20,804.80 404.75,805.15 403.00,806.20 401.95,807.95 401.60,810.40"/>
    </edge>
    <edge id=":nt17_4" function="internal">
        <lane id=":nt17_4_0" index="0" speed="20.00" length="14.40" shape="407.20,804.80 392.80,804.80"/>
    </edge>
    <edge id=":nt17_5" function="internal">
        <lane id=":nt17_5_0" index="0" speed="8.67" length="16.85" shape="407.20,801.60 403.35,800.85 400.60,798.60 398.95,794.85 398.40,789.60"/>
    </edge>
    <edge id=":nt17_6" function="internal">
        <lane id=":nt17_6_0" index="0" speed="6.51" length="9.03" shape="401.60,789.60 401.95,792.05 403.00,793.80 404.75,794.85 407.20,795.20"/>
    </edge>
    <edge id=":nt17_7" function="internal">
        <lane id=":nt17_7_0" index="0" speed="11.00" length="20.80" shape="401.60,789.60 401.60,810.40"/>
    </edge>
    <edge id=":nt17_8" function="internal">
        <lane id=":nt17_8_0" index="0" speed="8.67" length="7.89" shape="401.60,789.60 401.05,794.85 400.00,797.24"/>
    </edge>
    <edge id=":nt17_13" function="internal">
        <lane id=":nt17_13_0" index="0" speed="8.67" length="8.97" shape="400.00,797.24 399.40,798.60 396.65,800.85 392.80,801.60"/>
    </edge>
    <edge id=":nt17_9" function="internal">
        <lane id=":nt17_9_0" index="0" speed="6.51" length="9.03" shape="392.80,795.20 395.25,794.85 397.00,793.80 398.05,792.05 398.40,789.60"/>
    </edge>
    <edge id=":nt17_10" function="internal">
        <lane id=":nt17_10_0" index="0" speed="20.00" length="14.40" shape="392.80,795.20 407.20,795.20"/>
    </edge>
    <edge id=":nt17_11" function="internal">
        <lane id=":nt17_11_0" index="0" speed="8.67" length="16.85" shape="392.80,798.40 396.65,799.15 399.40,801.40 401.05,805.15 401.60,810.40"/>
    </edge>
    <edge id=":nt18_0" function="internal">
        <lane id=":nt18_0_0" index="0" speed="6.51" length="9.03" shape="598.40,810.40 598.05,807.95 597.00,806.20 595.25,805.15 592.80,804.80"/>
    </edge>
    <edge id=":nt18_1" function="internal">
        <lane id=":nt18_1_0" index="0" speed="11.00" length="20.80" shape="598.40,810.40 598.40,789.60"/>
    </edge>
    <edge id=":nt18_2" function="internal">
        <lane id=":nt18_2_0" index="0" speed="8.67" length="7.89" shape="598.40,810.40 598.95,805.15 600.00,802.76"/>
    </edge>
    <edge id=":nt18_12" function="internal">
        <lane id=":nt18_12_0" index="0" speed="8.67" length="8.97" shape="600.00,802.76 600.60,801.40 603.35,799.15 607.20,798.40"/>
    </edge>
    <edge id=":nt18_3" function="internal">
        <lane id=":nt18_3_0" index="0" speed="6.51" length="9.03" shape="607.20,804.80 604.75,805.15 603.00,806.20 601.95,807.95 601.60,810.40"/>
    </edge>
    <edge id=":nt18_4" function="internal">
        <lane id=":nt18_4_0" index="0" speed="20.00" length="14.40" shape="607.20,804.80 592.80,804.80"/>
    </edge>
    <edge id=":nt18_5" function="internal">
        <lane id=":nt18_5_0" index="0" speed="8.67" length="16.85" shape="607.20,801.60 603.35,800.85 600.60,798.60 598.95,794.85 598.40,789.60"/>
    </edge>
    <edge id=":nt18_6" function="internal">