<configuration>
  <input>
    <net-file value="grid_network_5_5.net.xml"/>
    <route-files value="grid_network_5_5.rou.xml"/>
    <additional-files value="grid_network_5_5.add.xml"/>
  </input>
  <time>
    <begin value="0"/>
    <end value="3600"/>
  </time>
</configuration>
